WARNING: physical memory size is smaller than virtual memory size

*** ChampSim Multicore Out-of-Order Simulator ***

Warmup Instructions: 10000000
Simulation Instructions: 50000000
Number of CPUs: 1
Page size: 4096

CPU 0 Bimodal branch predictor
Basic BTB sets: 1024 ways: 8 indirect buffer size: 4096 RAS size: 64
Off-chip DRAM Size: 4 GiB Channels: 1 Width: 64-bit Data Rate: 3200 MT/s
Heartbeat CPU 0 instructions: 10000001 cycles: 2500048 heartbeat IPC: 3.99993 cumulative IPC: 3.99993 (Simulation time: 0 hr 0 min 29 sec) 
Warmup finished CPU 0 instructions: 10000001 cycles: 2500049 cumulative IPC: 3.99993 (Simulation time: 0 hr 0 min 29 sec) 

Warmup complete CPU 0 instructions: 10000001 cycles: 2500049 (Simulation time: 0 hr 0 min 29 sec) 

Heartbeat CPU 0 instructions: 20000002 cycles: 6079073 heartbeat IPC: 2.79406 cumulative IPC: 2.79406 (Simulation time: 0 hr 1 min 7 sec) 
Heartbeat CPU 0 instructions: 30000003 cycles: 9675638 heartbeat IPC: 2.78044 cumulative IPC: 2.78723 (Simulation time: 0 hr 1 min 46 sec) 
Heartbeat CPU 0 instructions: 40000003 cycles: 13272564 heartbeat IPC: 2.78016 cumulative IPC: 2.78487 (Simulation time: 0 hr 2 min 25 sec) 
Heartbeat CPU 0 instructions: 50000004 cycles: 16848428 heartbeat IPC: 2.79653 cumulative IPC: 2.78778 (Simulation time: 0 hr 3 min 3 sec) 
Heartbeat CPU 0 instructions: 60000002 cycles: 20407981 heartbeat IPC: 2.80935 cumulative IPC: 2.79206 (Simulation time: 0 hr 3 min 41 sec) 
Simulation finished CPU 0 instructions: 50000001 cycles: 17907933 cumulative IPC: 2.79206 (Simulation time: 0 hr 3 min 41 sec) 

Simulation complete CPU 0 instructions: 50000001 cycles: 17907933 (Simulation time: 0 hr 3 min 41 sec) 


ChampSim completed all CPUs

=== Simulation ===
CPU 0 runs /home/trigger/benchs/625.x264_s-12B.champsimtrace.xz

Region of Interest Statistics

CPU 0 cumulative IPC: 2.79206 instructions: 50000001 cycles: 17907933
CPU 0 Branch Prediction Accuracy: 88.5854% MPKI: 4.91194 Average ROB Occupancy at Mispredict: 89.1316
Branch type MPKI
BRANCH_DIRECT_JUMP: 4e-05
BRANCH_INDIRECT: 2e-05
BRANCH_CONDITIONAL: 4.91052
BRANCH_DIRECT_CALL: 0
BRANCH_INDIRECT_CALL: 0.00136
BRANCH_RETURN: 0

LLC TOTAL       ACCESS:       9646  HIT:        829  MISS:       8817
LLC LOAD         ACCESS:       8927  HIT:        617  MISS:       8310
LLC RFO          ACCESS:        470  HIT:          3  MISS:        467
LLC PREFETCH     ACCESS:          0  HIT:          0  MISS:          0
LLC WRITE        ACCESS:        140  HIT:        140  MISS:          0
LLC TRANSLATION  ACCESS:        109  HIT:         69  MISS:         40
LLC PREFETCH  REQUESTED:          0  ISSUED:          0  USEFUL:          0  USELESS:          0
LLC AVERAGE MISS LATENCY: 111.671 cycles
cpu0_DTLB TOTAL       ACCESS:   10464293  HIT:   10454278  MISS:      10015
cpu0_DTLB LOAD         ACCESS:   10464293  HIT:   10454278  MISS:      10015
cpu0_DTLB RFO          ACCESS:          0  HIT:          0  MISS:          0
cpu0_DTLB PREFETCH     ACCESS:          0  HIT:          0  MISS:          0
cpu0_DTLB WRITE        ACCESS:          0  HIT:          0  MISS:          0
cpu0_DTLB TRANSLATION  ACCESS:          0  HIT:          0  MISS:          0
cpu0_DTLB PREFETCH  REQUESTED:          0  ISSUED:          0  USEFUL:          0  USELESS:          0
cpu0_DTLB AVERAGE MISS LATENCY: 6.99591 cycles
cpu0_ITLB TOTAL       ACCESS:     668678  HIT:     668678  MISS:          0
cpu0_ITLB LOAD         ACCESS:     668678  HIT:     668678  MISS:          0
cpu0_ITLB RFO          ACCESS:          0  HIT:          0  MISS:          0
cpu0_ITLB PREFETCH     ACCESS:          0  HIT:          0  MISS:          0
cpu0_ITLB WRITE        ACCESS:          0  HIT:          0  MISS:          0
cpu0_ITLB TRANSLATION  ACCESS:          0  HIT:          0  MISS:          0
cpu0_ITLB PREFETCH  REQUESTED:          0  ISSUED:          0  USEFUL:          0  USELESS:          0
cpu0_ITLB AVERAGE MISS LATENCY: -nan cycles
cpu0_L1D TOTAL       ACCESS:   11411516  HIT:   11361776  MISS:      49740
cpu0_L1D LOAD         ACCESS:    8388534  HIT:    8339451  MISS:      49083
cpu0_L1D RFO          ACCESS:          0  HIT:          0  MISS:          0
cpu0_L1D PREFETCH     ACCESS:          0  HIT:          0  MISS:          0
cpu0_L1D WRITE        ACCESS:    3022826  HIT:    3022317  MISS:        509
cpu0_L1D TRANSLATION  ACCESS:        156  HIT:          8  MISS:        148
cpu0_L1D PREFETCH  REQUESTED:          0  ISSUED:          0  USEFUL:          0  USELESS:          0
cpu0_L1D AVERAGE MISS LATENCY: 27.4021 cycles
cpu0_L1I TOTAL       ACCESS:     829613  HIT:     829610  MISS:          3
cpu0_L1I LOAD         ACCESS:     829613  HIT:     829610  MISS:          3
cpu0_L1I RFO          ACCESS:          0  HIT:          0  MISS:          0
cpu0_L1I PREFETCH     ACCESS:          0  HIT:          0  MISS:          0
cpu0_L1I WRITE        ACCESS:          0  HIT:          0  MISS:          0
cpu0_L1I TRANSLATION  ACCESS:          0  HIT:          0  MISS:          0
cpu0_L1I PREFETCH  REQUESTED:          0  ISSUED:          0  USEFUL:          0  USELESS:          0
cpu0_L1I AVERAGE MISS LATENCY: 131.334 cycles
cpu0_L2C TOTAL       ACCESS:      16783  HIT:       7210  MISS:       9573
cpu0_L2C LOAD         ACCESS:      15873  HIT:       6946  MISS:       8927
cpu0_L2C RFO          ACCESS:        474  HIT:          4  MISS:        470
cpu0_L2C PREFETCH     ACCESS:          0  HIT:          0  MISS:          0
cpu0_L2C WRITE        ACCESS:        288  HIT:        221  MISS:         67
cpu0_L2C TRANSLATION  ACCESS:        148  HIT:         39  MISS:        109
cpu0_L2C PREFETCH  REQUESTED:          0  ISSUED:          0  USEFUL:          0  USELESS:          0
cpu0_L2C AVERAGE MISS LATENCY: 123.634 cycles
cpu0_STLB TOTAL       ACCESS:       3372  HIT:       3216  MISS:        156
cpu0_STLB LOAD         ACCESS:       3372  HIT:       3216  MISS:        156
cpu0_STLB RFO          ACCESS:          0  HIT:          0  MISS:          0
cpu0_STLB PREFETCH     ACCESS:          0  HIT:          0  MISS:          0
cpu0_STLB WRITE        ACCESS:          0  HIT:          0  MISS:          0
cpu0_STLB TRANSLATION  ACCESS:          0  HIT:          0  MISS:          0
cpu0_STLB PREFETCH  REQUESTED:          0  ISSUED:          0  USEFUL:          0  USELESS:          0
cpu0_STLB AVERAGE MISS LATENCY: 275.167 cycles

DRAM Statistics
Channel 0
 RQ ROW_BUFFER_HIT:       6115
  ROW_BUFFER_MISS:       2702
 AVG DBUS CONGESTED CYCLE:     3.6961
 WQ ROW_BUFFER_HIT:          0
  ROW_BUFFER_MISS:          0  FULL:          0

